 &time_control
 run_days                            = 00,
 run_hours                           = 15,
 run_minutes                         = 00,
 run_seconds                         = 00,
 start_year                          = 0001, 0001, 0001,
 start_month                         = 01,   01,   01,
 start_day                           = 01,   01,   01,
 start_hour                          = 00,   01,   00,
 start_minute                        = 00,   00,   00,
 start_second                        = 00,   00,   00,
 end_year                            = 0001, 0001, 0001,
 end_month                           = 01,   01,   01,
 end_day                             = 01,   01,   01,
 end_hour                            = 00,   00,   00,
 end_minute                          = 00,   00,   00,
 end_second                          = 00,   00,   00,
 history_interval_m                  = 00,   00,   00, ! run for 8 hours and do not save data
 history_interval_s                  = 00,   00,   00,
 frames_per_outfile                  = 100000, 100000, 100000,
 restart                             = .false., ! this is a spin-up run
 restart_interval_m                  = 900,
 io_form_history                     = 11,
 io_form_restart                     = 11,
 io_form_input                       = 2,
 io_form_boundary                    = 2,
 nocolons                            = .true.,
 iofields_filename                   = "my_iofields",
 /

 &domains
 time_step                           = 5,
! time_step_fract_num                 = 0,
! time_step_fract_den                 = 1,
 max_dom                             = 1,
 s_we                                = 1,     1,     1,
 e_we                                = 101,   100,    151,
 s_sn                                = 1,     1,     1,
 e_sn                                = 101,   100,    151,
 s_vert                              = 1,     1,     1,
 e_vert                              = 101,   101,   101,
 eta_levels                          = 1.00000, 0.99454, 0.98908, 0.98362, 0.97817,
                                       0.97273, 0.96729, 0.96186, 0.95643, 0.95101,
                                       0.94559, 0.94018, 0.93478, 0.92937, 0.92398,
                                       0.91859, 0.91320, 0.90782, 0.90244, 0.89707,
                                       0.89171, 0.88635, 0.88098, 0.87561, 0.87022,
                                       0.86482, 0.85941, 0.85397, 0.84852, 0.84304,
                                       0.83754, 0.83200, 0.82643, 0.82081, 0.81515,
                                       0.80943, 0.80365, 0.79779, 0.79186, 0.78584,
                                       0.77972, 0.77348, 0.76712, 0.76062, 0.75396,
                                       0.74713, 0.74011, 0.73289, 0.72543, 0.71773,
                                       0.70977, 0.70151, 0.69296, 0.68408, 0.67487,
                                       0.66529, 0.65535, 0.64504, 0.63433, 0.62324,
                                       0.61176, 0.59989, 0.58764, 0.57501, 0.56203,
                                       0.54870, 0.53505, 0.52108, 0.50684, 0.49232,
                                       0.47756, 0.46259, 0.44741, 0.43205, 0.41654,
                                       0.40090, 0.38513, 0.36926, 0.35331, 0.33728,
                                       0.32120, 0.30507, 0.28892, 0.27273, 0.25653,
                                       0.24033, 0.22413, 0.20793, 0.19175, 0.17559,
                                       0.15945, 0.14334, 0.12725, 0.11120, 0.09519,
                                       0.07922, 0.06328, 0.04739, 0.03155, 0.01575,
                                       0.00000,
 dx                                  = 1000,
 dy                                  = 1000,
 ztop                                = 2000,  2000,  2000,
 grid_id                             = 1,     2,     3,
 parent_id                           = 0,     1,     2,
 i_parent_start                      = 0,     10,    15,
 j_parent_start                      = 0,     10,    15,
 parent_grid_ratio                   = 1,     3,     3,
 parent_time_step_ratio              = 1,     3,     3,
 feedback                            = 0,
 smooth_option                       = 0
 /

 &physics
 mp_physics                          = 0,     0,     0,
 ra_lw_physics                       = 0,     0,     0,
 ra_sw_physics                       = 0,     0,     0,
 radt                                = 0,     0,     0,
 sf_sfclay_physics                   = 1,     1,     1,
 sf_surface_physics                  = 0,     0,     0,
 bl_pbl_physics                      = 1,     0,     0,
 bldt                                = 0,     0,     0,
 cu_physics                          = 0,     0,     0,
 cudt                                = 0,     0,     0,
 isfflx                              = 1, ! isfflx=1 to activate surface cooling/heating for idealized cases.
 icloud                              = 0,
 ifsnow                              = 0,
 topo_wind                           = 0,     0,     0,
 ysu_topdown_pblmix                  = 0,
 /

 &fdda
 /

 &dynamics
 hybrid_opt                          = 0,
 rk_ord                              = 3,
 diff_opt                            = 1,      2,      2,
 km_opt                              = 4,      2,      2,
 m_opt                               = 1,
 w_damping                           = 1,
 damp_opt                            = 2,
 zdamp                               = 500.,  5000.,  5000.,
 dampcoef                            = 0.003,    0.2,    0.2
 khdif                               = 0.0,      1.,    .05,
 kvdif                               = 0.0,      1.,    .05,
 mix_isotropic                       = 0
 smdiv                               = 0.1,    0.1,    0.1,
 emdiv                               = 0.01,   0.01,   0.01,
 epssm                               = 0.1,    0.1,    0.1
 tke_heat_flux                       = 0.0,   0.24,   0.24,
 time_step_sound                     = 6,      6,      6,
 h_mom_adv_order                     = 5,      5,      5,
 v_mom_adv_order                     = 3,      3,      3,
 h_sca_adv_order                     = 5,      5,      5,
 v_sca_adv_order                     = 3,      3,      3,
 scalar_adv_opt                      = 1,      1,      1,
 tke_adv_opt                         = 1,      1,      1,
 mix_full_fields                     = .false., .true., .true.,
 non_hydrostatic                     = .true., .true., .true.,
 pert_coriolis                       = .true., .true., .true.,
 base_temp                           = 288.0,
 use_baseparam_fr_nml                = .true.,
 use_theta_m                         = 0,
 spec_ideal                          = 1,
 spec_hfx                            = 10.0,
 spec_z0                             = 0.05,
 spec_sf_heatrate                    = 0.0,
 spec_lat                            = 45.0,
! spec_init_perts                     = .false.,
! spec_pblh                           = 700.0,
 /

 &bdy_control
 periodic_x                          = .true.,
 symmetric_xs                        = .false.,
 symmetric_xe                        = .false.,
 open_xs                             = .false.,
 open_xe                             = .false.,
 periodic_y                          = .true.,
 symmetric_ys                        = .false.,
 symmetric_ye                        = .false.,
 open_ys                             = .false.,
 open_ye                             = .false.,
 /

 &grib2
 /

 &namelist_quilt
 nio_tasks_per_group = 0,
 nio_groups = 1,
 /

 &ideal
 ideal_case = 9
 /
